Elermorevale/generators/Generators2.glm

module Generators;

object load {
      name BLUEGEN_9099107;
      parent FDR_38587_LV_SP_9099107;
      phases CN;
      nominal_voltage  240;
      base_power_C schedule_BlueGen0;
      };

object load {
      name BLUEGEN_90991071;
      parent FDR_38587_LV_SP_9099107;
      phases AN;
      nominal_voltage  240;
      constant_power_A_real schedule_BlueGen0;
      };


object load {
      name BLUEGEN_5335418;
      parent FDR_4880_LV_SP_5335418;
      phases CN;
      nominal_voltage  240;
      constant_power_C_real schedule_BlueGen0;
      };

object battery{
    name Redflow_Battery_5335456;
    parent FDR_4880_LV_SP_5335456;
    generator_mode CONSTANT_PQ;     
  V_Max 6351;   
  I_Max 250;   
  P_Max 5000;   
  E_Max 10000;       
  base_efficiency 0.86;     
  parasitic_power_draw 180 W;     
  power_type AC;     
  generator_status ONLINE;     
  Energy 10000;
  scheduled_power 2500;
  power_factor 1.0;
}
object aggregate_transform
{
    rank 6;
    name Set_Aux_Draw_5335456;
    properties_list "ElermoreClimate.temperature";  
    bias_list "575"; //calculate these values
    gain_list "0.3"; //calculate these values
    result_object_name "Redflow_Battery_5335456";
    result_property_name "parasitic_power_draw";
    resync_until_nochange TRUE;
}
object lookup_table{
    rank 6;
    name Set_discharge_max_rate_5335456;
    input_object "Redflow_Battery_5335456";
    input_property "Energy";
    keys_string "0 6000"; //max power charge rate
    values_string "0 1"; //set to PU
}
object aggregate_transform{
    rank 7;
    name Set_SOE_efficiency_5335456;
    properties_list "Set_discharge_max_rate_5335456.output";
    bias_list "1.25"; //lower bounds are 0.5 upper are 0.9
    gain_list "0.4";
    result_object_name "Redflow_Battery_5335456";
    result_property_name "base_efficiency";
    resync_until_nochange TRUE;
}
object aggregate_transform{
    rank 7;
    name Battery_Charge_Limit_5335456;
    properties_list "ElermoreClimate.temperature RedFlow_Charge"; //<-- set the right climate file
    bias_list "+43 0";
    gain_list "20.83333 1"; //=62.5(Vop) * (Ic)(0.6*Tc+25)
    resync_until_nochange TRUE;
}
object aggregate_transform{
    rank 8;
    name compare_charging_inputs_5335456;
    operation SUM;
    properties_list "RedFlow_Charge_rate Battery_Charge_Limit_5335456.result";
    resync_until_nochange TRUE;
}
object lookup_table{
    rank 9;
    name charging_high_boolean_5335456;
    input_object "compare_charging_inputs_5335456";
    input_property "result";
    keys_string "0.0001 0.001"; 
    values_string "0 1";
}
object aggregate_transform{
    rank 10;
    name charging_limited_5335456;
    properties_list "Battery_Charge_Limit_5335456.result charging_high_boolean_5335456.output";
    resync_until_nochange TRUE;
}
object lookup_table{
    rank 9;
    name charging_low_boolean_5335456;
    input_object "compare_charging_inputs_5335456";
    input_property "result";
    keys_string "-0.1001 -0.1"; 
    values_string "1 0";
}
object aggregate_transform{
    rank 10;
    name charging_sourced_5335456;
    properties_list "RedFlow_Charge_rate charging_low_boolean_5335456.output";
    gain_list "-1";
    resync_until_nochange TRUE;
}
object aggregate_transform{
    rank 11;
    name Battery_Charge_5335456;
    operation SUM;
    properties_list "charging_limited_5335456.result charging_sourced_5335456.result";
    resync_until_nochange TRUE;
}
object aggregate_transform{
    rank 7;
    name Battery_Discharge_Rate_5335456;
    properties_list "Set_discharge_max_rate_5335456.output RedFlow_Discharge";
    resync_until_nochange TRUE;
}
object aggregate_transform{
    rank 8;
    name compare_discharging_inputs_5335456;
    operation SUM;
    properties_list "Battery_Discharge_Rate_5335456.result RedFlow_Discharge_rate";
    gain_list "5000 -1";
    resync_until_nochange TRUE;
}
object lookup_table{
    rank 9;
    name discharging_high_boolean_5335456;
    input_object "compare_discharging_inputs_5335456";
    input_property "result";
    keys_string "-0.0001 -0.00001"; 
    values_string "1 0";
}
object aggregate_transform{
    rank 10;
    name discharging_limited_5335456;
    properties_list "Battery_Discharge_Rate_5335456.result discharging_high_boolean_5335456.output";
    gain_list "1 5000";
    resync_until_nochange TRUE;
}
object lookup_table{
    rank 9;
    name discharging_low_boolean_5335456;
    input_object "compare_discharging_inputs_5335456";
    input_property "result";
    keys_string "0.0001 0.001"; 
    values_string "0 1";
}
object aggregate_transform{
    rank 10;
    name discharging_following_5335456;
    properties_list "RedFlow_Discharge_rate discharging_low_boolean_5335456.output";
    resync_until_nochange TRUE;
}
object aggregate_transform{
    rank 11;
    name Battery_Discharge_5335456;
    operation SUM;
    properties_list "discharging_limited_5335456.result discharging_following_5335456.result";
    gain_list "1 1";
    resync_until_nochange TRUE;
}
object aggregate_transform{
    rank 12;
    name set_battery_state_5335456;
    operation SUM;
    properties_list "Battery_Discharge_5335456.result Battery_Charge_5335456.result";
    result_object_name "Redflow_Battery_5335456";
    result_property_name "scheduled_power";
    resync_until_nochange TRUE;
}


object battery{
    name Redflow_Battery_5213189;
    parent FDR_12447_LV_SP_5213189;
    generator_mode CONSTANT_PQ;     
  V_Max 6351;   
  I_Max 250;   
  P_Max 5000;   
  E_Max 10000;       
  base_efficiency 0.86;     
  parasitic_power_draw 180 W;     
  power_type AC;     
  generator_status ONLINE;     
  Energy 10000;
  scheduled_power 2500;
  power_factor 1.0;
}
object aggregate_transform
{
    rank 6;
    name Set_Aux_Draw_5213189;
    properties_list "ElermoreClimate.temperature";  
    bias_list "575"; //calculate these values
    gain_list "0.3"; //calculate these values
    result_object_name "Redflow_Battery_5213189";
    result_property_name "parasitic_power_draw";
    resync_until_nochange TRUE;
}
object lookup_table{
    rank 6;
    name Set_discharge_max_rate_5213189;
    input_object "Redflow_Battery_5213189";
    input_property "Energy";
    keys_string "0 6000"; //max power charge rate
    values_string "0 1"; //set to PU
}
object aggregate_transform{
    rank 7;
    name Set_SOE_efficiency_5213189;
    properties_list "Set_discharge_max_rate_5213189.output";
    bias_list "1.25"; //lower bounds are 0.5 upper are 0.9
    gain_list "0.4";
    result_object_name "Redflow_Battery_5213189";
    result_property_name "base_efficiency";
    resync_until_nochange TRUE;
}
object aggregate_transform{
    rank 7;
    name Battery_Charge_Limit_5213189;
    properties_list "ElermoreClimate.temperature RedFlow_Charge"; //<-- set the right climate file
    bias_list "+43 0";
    gain_list "20.83333 1"; //=62.5(Vop) * (Ic)(0.6*Tc+25)
    resync_until_nochange TRUE;
}
object aggregate_transform{
    rank 8;
    name compare_charging_inputs_5213189;
    operation SUM;
    properties_list "RedFlow_Charge_rate Battery_Charge_Limit_5213189.result";
    resync_until_nochange TRUE;
}
object lookup_table{
    rank 9;
    name charging_high_boolean_5213189;
    input_object "compare_charging_inputs_5213189";
    input_property "result";
    keys_string "0.0001 0.001"; 
    values_string "0 1";
}
object aggregate_transform{
    rank 10;
    name charging_limited_5213189;
    properties_list "Battery_Charge_Limit_5213189.result charging_high_boolean_5213189.output";
    resync_until_nochange TRUE;
}
object lookup_table{
    rank 9;
    name charging_low_boolean_5213189;
    input_object "compare_charging_inputs_5213189";
    input_property "result";
    keys_string "-0.1001 -0.1"; 
    values_string "1 0";
}
object aggregate_transform{
    rank 10;
    name charging_sourced_5213189;
    properties_list "RedFlow_Charge_rate charging_low_boolean_5213189.output";
    gain_list "-1";
    resync_until_nochange TRUE;
}
object aggregate_transform{
    rank 11;
    name Battery_Charge_5213189;
    operation SUM;
    properties_list "charging_limited_5213189.result charging_sourced_5213189.result";
    resync_until_nochange TRUE;
}
object aggregate_transform{
    rank 7;
    name Battery_Discharge_Rate_5213189;
    properties_list "Set_discharge_max_rate_5213189.output RedFlow_Discharge";
    resync_until_nochange TRUE;
}
object aggregate_transform{
    rank 8;
    name compare_discharging_inputs_5213189;
    operation SUM;
    properties_list "Battery_Discharge_Rate_5213189.result RedFlow_Discharge_rate";
    gain_list "5000 -1";
    resync_until_nochange TRUE;
}
object lookup_table{
    rank 9;
    name discharging_high_boolean_5213189;
    input_object "compare_discharging_inputs_5213189";
    input_property "result";
    keys_string "-0.0001 -0.00001"; 
    values_string "1 0";
}
object aggregate_transform{
    rank 10;
    name discharging_limited_5213189;
    properties_list "Battery_Discharge_Rate_5213189.result discharging_high_boolean_5213189.output";
    gain_list "1 5000";
    resync_until_nochange TRUE;
}
object lookup_table{
    rank 9;
    name discharging_low_boolean_5213189;
    input_object "compare_discharging_inputs_5213189";
    input_property "result";
    keys_string "0.0001 0.001"; 
    values_string "0 1";
}
object aggregate_transform{
    rank 10;
    name discharging_following_5213189;
    properties_list "RedFlow_Discharge_rate discharging_low_boolean_5213189.output";
    resync_until_nochange TRUE;
}
object aggregate_transform{
    rank 11;
    name Battery_Discharge_5213189;
    operation SUM;
    properties_list "discharging_limited_5213189.result discharging_following_5213189.result";
    gain_list "1 1";
    resync_until_nochange TRUE;
}
object aggregate_transform{
    rank 12;
    name set_battery_state_5213189;
    operation SUM;
    properties_list "Battery_Discharge_5213189.result Battery_Charge_5213189.result";
    result_object_name "Redflow_Battery_5213189";
    result_property_name "scheduled_power";
    resync_until_nochange TRUE;
}
object battery{
    name Redflow_Battery_5335424;
    parent FDR_4880_LV_SP_5335424;
    generator_mode CONSTANT_PQ;     
  V_Max 6351;   
  I_Max 250;   
  P_Max 5000;   
  E_Max 10000;       
  base_efficiency 0.86;     
  parasitic_power_draw 180 W;     
  power_type AC;     
  generator_status ONLINE;     
  Energy 10000;
  scheduled_power 2500;
  power_factor 1.0;
}
object aggregate_transform
{
    rank 6;
    name Set_Aux_Draw_5335424;
    properties_list "ElermoreClimate.temperature";  
    bias_list "575"; //calculate these values
    gain_list "0.3"; //calculate these values
    result_object_name "Redflow_Battery_5335424";
    result_property_name "parasitic_power_draw";
    resync_until_nochange TRUE;
}
object lookup_table{
    rank 6;
    name Set_discharge_max_rate_5335424;
    input_object "Redflow_Battery_5335424";
    input_property "Energy";
    keys_string "0 6000"; //max power charge rate
    values_string "0 1"; //set to PU
}
object aggregate_transform{
    rank 7;
    name Set_SOE_efficiency_5335424;
    properties_list "Set_discharge_max_rate_5335424.output";
    bias_list "1.25"; //lower bounds are 0.5 upper are 0.9
    gain_list "0.4";
    result_object_name "Redflow_Battery_5335424";
    result_property_name "base_efficiency";
    resync_until_nochange TRUE;
}
object aggregate_transform{
    rank 7;
    name Battery_Charge_Limit_5335424;
    properties_list "ElermoreClimate.temperature RedFlow_Charge"; //<-- set the right climate file
    bias_list "+43 0";
    gain_list "20.83333 1"; //=62.5(Vop) * (Ic)(0.6*Tc+25)
    resync_until_nochange TRUE;
}
object aggregate_transform{
    rank 8;
    name compare_charging_inputs_5335424;
    operation SUM;
    properties_list "RedFlow_Charge_rate Battery_Charge_Limit_5335424.result";
    resync_until_nochange TRUE;
}
object lookup_table{
    rank 9;
    name charging_high_boolean_5335424;
    input_object "compare_charging_inputs_5335424";
    input_property "result";
    keys_string "0.0001 0.001"; 
    values_string "0 1";
}
object aggregate_transform{
    rank 10;
    name charging_limited_5335424;
    properties_list "Battery_Charge_Limit_5335424.result charging_high_boolean_5335424.output";
    resync_until_nochange TRUE;
}
object lookup_table{
    rank 9;
    name charging_low_boolean_5335424;
    input_object "compare_charging_inputs_5335424";
    input_property "result";
    keys_string "-0.1001 -0.1"; 
    values_string "1 0";
}
object aggregate_transform{
    rank 10;
    name charging_sourced_5335424;
    properties_list "RedFlow_Charge_rate charging_low_boolean_5335424.output";
    gain_list "-1";
    resync_until_nochange TRUE;
}
object aggregate_transform{
    rank 11;
    name Battery_Charge_5335424;
    operation SUM;
    properties_list "charging_limited_5335424.result charging_sourced_5335424.result";
    resync_until_nochange TRUE;
}
object aggregate_transform{
    rank 7;
    name Battery_Discharge_Rate_5335424;
    properties_list "Set_discharge_max_rate_5335424.output RedFlow_Discharge";
    resync_until_nochange TRUE;
}
object aggregate_transform{
    rank 8;
    name compare_discharging_inputs_5335424;
    operation SUM;
    properties_list "Battery_Discharge_Rate_5335424.result RedFlow_Discharge_rate";
    gain_list "5000 -1";
    resync_until_nochange TRUE;
}
object lookup_table{
    rank 9;
    name discharging_high_boolean_5335424;
    input_object "compare_discharging_inputs_5335424";
    input_property "result";
    keys_string "-0.0001 -0.00001"; 
    values_string "1 0";
}
object aggregate_transform{
    rank 10;
    name discharging_limited_5335424;
    properties_list "Battery_Discharge_Rate_5335424.result discharging_high_boolean_5335424.output";
    gain_list "1 5000";
    resync_until_nochange TRUE;
}
object lookup_table{
    rank 9;
    name discharging_low_boolean_5335424;
    input_object "compare_discharging_inputs_5335424";
    input_property "result";
    keys_string "0.0001 0.001"; 
    values_string "0 1";
}
object aggregate_transform{
    rank 10;
    name discharging_following_5335424;
    properties_list "RedFlow_Discharge_rate discharging_low_boolean_5335424.output";
    resync_until_nochange TRUE;
}
object aggregate_transform{
    rank 11;
    name Battery_Discharge_5335424;
    operation SUM;
    properties_list "discharging_limited_5335424.result discharging_following_5335424.result";
    gain_list "1 1";
    resync_until_nochange TRUE;
}
object aggregate_transform{
    rank 12;
    name set_battery_state_5335424;
    operation SUM;
    properties_list "Battery_Discharge_5335424.result Battery_Charge_5335424.result";
    result_object_name "Redflow_Battery_5335424";
    result_property_name "scheduled_power";
    resync_until_nochange TRUE;
}

object battery{
    name Redflow_Battery_5335447;
    parent FDR_4880_LV_SP_5335447;
    generator_mode CONSTANT_PQ;     
  V_Max 6351;   
  I_Max 250;   
  P_Max 5000;   
  E_Max 10000;       
  base_efficiency 0.86;     
  parasitic_power_draw 180 W;     
  power_type AC;     
  generator_status ONLINE;     
  Energy 10000;
  scheduled_power 2500;
  power_factor 1.0;
}
object aggregate_transform
{
    rank 6;
    name Set_Aux_Draw_5335447;
    properties_list "ElermoreClimate.temperature";  
    bias_list "575"; //calculate these values
    gain_list "0.3"; //calculate these values
    result_object_name "Redflow_Battery_5335447";
    result_property_name "parasitic_power_draw";
    resync_until_nochange TRUE;
}
object lookup_table{
    rank 6;
    name Set_discharge_max_rate_5335447;
    input_object "Redflow_Battery_5335447";
    input_property "Energy";
    keys_string "0 6000"; //max power charge rate
    values_string "0 1"; //set to PU
}
object aggregate_transform{
    rank 7;
    name Set_SOE_efficiency_5335447;
    properties_list "Set_discharge_max_rate_5335447.output";
    bias_list "1.25"; //lower bounds are 0.5 upper are 0.9
    gain_list "0.4";
    result_object_name "Redflow_Battery_5335447";
    result_property_name "base_efficiency";
    resync_until_nochange TRUE;
}
object aggregate_transform{
    rank 7;
    name Battery_Charge_Limit_5335447;
    properties_list "ElermoreClimate.temperature RedFlow_Charge"; //<-- set the right climate file
    bias_list "+43 0";
    gain_list "20.83333 1"; //=62.5(Vop) * (Ic)(0.6*Tc+25)
    resync_until_nochange TRUE;
}
object aggregate_transform{
    rank 8;
    name compare_charging_inputs_5335447;
    operation SUM;
    properties_list "RedFlow_Charge_rate Battery_Charge_Limit_5335447.result";
    resync_until_nochange TRUE;
}
object lookup_table{
    rank 9;
    name charging_high_boolean_5335447;
    input_object "compare_charging_inputs_5335447";
    input_property "result";
    keys_string "0.0001 0.001"; 
    values_string "0 1";
}
object aggregate_transform{
    rank 10;
    name charging_limited_5335447;
    properties_list "Battery_Charge_Limit_5335447.result charging_high_boolean_5335447.output";
    resync_until_nochange TRUE;
}
object lookup_table{
    rank 9;
    name charging_low_boolean_5335447;
    input_object "compare_charging_inputs_5335447";
    input_property "result";
    keys_string "-0.1001 -0.1"; 
    values_string "1 0";
}
object aggregate_transform{
    rank 10;
    name charging_sourced_5335447;
    properties_list "RedFlow_Charge_rate charging_low_boolean_5335447.output";
    gain_list "-1";
    resync_until_nochange TRUE;
}
object aggregate_transform{
    rank 11;
    name Battery_Charge_5335447;
    operation SUM;
    properties_list "charging_limited_5335447.result charging_sourced_5335447.result";
    resync_until_nochange TRUE;
}
object aggregate_transform{
    rank 7;
    name Battery_Discharge_Rate_5335447;
    properties_list "Set_discharge_max_rate_5335447.output RedFlow_Discharge";
    resync_until_nochange TRUE;
}
object aggregate_transform{
    rank 8;
    name compare_discharging_inputs_5335447;
    operation SUM;
    properties_list "Battery_Discharge_Rate_5335447.result RedFlow_Discharge_rate";
    gain_list "5000 -1";
    resync_until_nochange TRUE;
}
object lookup_table{
    rank 9;
    name discharging_high_boolean_5335447;
    input_object "compare_discharging_inputs_5335447";
    input_property "result";
    keys_string "-0.0001 -0.00001"; 
    values_string "1 0";
}
object aggregate_transform{
    rank 10;
    name discharging_limited_5335447;
    properties_list "Battery_Discharge_Rate_5335447.result discharging_high_boolean_5335447.output";
    gain_list "1 5000";
    resync_until_nochange TRUE;
}
object lookup_table{
    rank 9;
    name discharging_low_boolean_5335447;
    input_object "compare_discharging_inputs_5335447";
    input_property "result";
    keys_string "0.0001 0.001"; 
    values_string "0 1";
}
object aggregate_transform{
    rank 10;
    name discharging_following_5335447;
    properties_list "RedFlow_Discharge_rate discharging_low_boolean_5335447.output";
    resync_until_nochange TRUE;
}
object aggregate_transform{
    rank 11;
    name Battery_Discharge_5335447;
    operation SUM;
    properties_list "discharging_limited_5335447.result discharging_following_5335447.result";
    gain_list "1 1";
    resync_until_nochange TRUE;
}
object aggregate_transform{
    rank 12;
    name set_battery_state_5335447;
    operation SUM;
    properties_list "Battery_Discharge_5335447.result Battery_Charge_5335447.result";
    result_object_name "Redflow_Battery_5335447";
    result_property_name "scheduled_power";
    resync_until_nochange TRUE;
}

object battery{
    name Redflow_Battery_499622;
    parent FDR_21066_LV_SP_499622;
    generator_mode CONSTANT_PQ;     
  V_Max 6351;   
  I_Max 250;   
  P_Max 5000;   
  E_Max 10000;       
  base_efficiency 0.86;     
  parasitic_power_draw 180 W;     
  power_type AC;     
  generator_status ONLINE;     
  Energy 10000;
  scheduled_power 2500;
  power_factor 1.0;
}
object aggregate_transform
{
    rank 6;
    name Set_Aux_Draw_499622;
    properties_list "ElermoreClimate.temperature";  
    bias_list "575"; //calculate these values
    gain_list "0.3"; //calculate these values
    result_object_name "Redflow_Battery_499622";
    result_property_name "parasitic_power_draw";
    resync_until_nochange TRUE;
}
object lookup_table{
    rank 6;
    name Set_discharge_max_rate_499622;
    input_object "Redflow_Battery_499622";
    input_property "Energy";
    keys_string "0 6000"; //max power charge rate
    values_string "0 1"; //set to PU
}
object aggregate_transform{
    rank 7;
    name Set_SOE_efficiency_499622;
    properties_list "Set_discharge_max_rate_499622.output";
    bias_list "1.25"; //lower bounds are 0.5 upper are 0.9
    gain_list "0.4";
    result_object_name "Redflow_Battery_499622";
    result_property_name "base_efficiency";
    resync_until_nochange TRUE;
}
object aggregate_transform{
    rank 7;
    name Battery_Charge_Limit_499622;
    properties_list "ElermoreClimate.temperature RedFlow_Charge"; //<-- set the right climate file
    bias_list "+43 0";
    gain_list "20.83333 1"; //=62.5(Vop) * (Ic)(0.6*Tc+25)
    resync_until_nochange TRUE;
}
object aggregate_transform{
    rank 8;
    name compare_charging_inputs_499622;
    operation SUM;
    properties_list "RedFlow_Charge_rate Battery_Charge_Limit_499622.result";
    resync_until_nochange TRUE;
}
object lookup_table{
    rank 9;
    name charging_high_boolean_499622;
    input_object "compare_charging_inputs_499622";
    input_property "result";
    keys_string "0.0001 0.001"; 
    values_string "0 1";
}
object aggregate_transform{
    rank 10;
    name charging_limited_499622;
    properties_list "Battery_Charge_Limit_499622.result charging_high_boolean_499622.output";
    resync_until_nochange TRUE;
}
object lookup_table{
    rank 9;
    name charging_low_boolean_499622;
    input_object "compare_charging_inputs_499622";
    input_property "result";
    keys_string "-0.1001 -0.1"; 
    values_string "1 0";
}
object aggregate_transform{
    rank 10;
    name charging_sourced_499622;
    properties_list "RedFlow_Charge_rate charging_low_boolean_499622.output";
    gain_list "-1";
    resync_until_nochange TRUE;
}
object aggregate_transform{
    rank 11;
    name Battery_Charge_499622;
    operation SUM;
    properties_list "charging_limited_499622.result charging_sourced_499622.result";
    resync_until_nochange TRUE;
}
object aggregate_transform{
    rank 7;
    name Battery_Discharge_Rate_499622;
    properties_list "Set_discharge_max_rate_499622.output RedFlow_Discharge";
    resync_until_nochange TRUE;
}
object aggregate_transform{
    rank 8;
    name compare_discharging_inputs_499622;
    operation SUM;
    properties_list "Battery_Discharge_Rate_499622.result RedFlow_Discharge_rate";
    gain_list "5000 -1";
    resync_until_nochange TRUE;
}
object lookup_table{
    rank 9;
    name discharging_high_boolean_499622;
    input_object "compare_discharging_inputs_499622";
    input_property "result";
    keys_string "-0.0001 -0.00001"; 
    values_string "1 0";
}
object aggregate_transform{
    rank 10;
    name discharging_limited_499622;
    properties_list "Battery_Discharge_Rate_499622.result discharging_high_boolean_499622.output";
    gain_list "1 5000";
    resync_until_nochange TRUE;
}
object lookup_table{
    rank 9;
    name discharging_low_boolean_499622;
    input_object "compare_discharging_inputs_499622";
    input_property "result";
    keys_string "0.0001 0.001"; 
    values_string "0 1";
}
object aggregate_transform{
    rank 10;
    name discharging_following_499622;
    properties_list "RedFlow_Discharge_rate discharging_low_boolean_499622.output";
    resync_until_nochange TRUE;
}
object aggregate_transform{
    rank 11;
    name Battery_Discharge_499622;
    operation SUM;
    properties_list "discharging_limited_499622.result discharging_following_499622.result";
    gain_list "1 1";
    resync_until_nochange TRUE;
}
object aggregate_transform{
    rank 12;
    name set_battery_state_499622;
    operation SUM;
    properties_list "Battery_Discharge_499622.result Battery_Charge_499622.result";
    result_object_name "Redflow_Battery_499622";
    result_property_name "scheduled_power";
    resync_until_nochange TRUE;
}


object battery{
    name Redflow_Battery_5334721;
    parent FDR_38589_LV_SP_5334721;
    generator_mode CONSTANT_PQ;     
  V_Max 6351;   
  I_Max 250;   
  P_Max 5000;   
  E_Max 10000;       
  base_efficiency 0.86;     
  parasitic_power_draw 180 W;     
  power_type AC;     
  generator_status ONLINE;     
  Energy 10000;
  scheduled_power 2500;
  power_factor 1.0;
}
object aggregate_transform
{
    rank 6;
    name Set_Aux_Draw_5334721;
    properties_list "ElermoreClimate.temperature";  
    bias_list "575"; //calculate these values
    gain_list "0.3"; //calculate these values
    result_object_name "Redflow_Battery_5334721";
    result_property_name "parasitic_power_draw";
    resync_until_nochange TRUE;
}
object lookup_table{
    rank 6;
    name Set_discharge_max_rate_5334721;
    input_object "Redflow_Battery_5334721";
    input_property "Energy";
    keys_string "0 6000"; //max power charge rate
    values_string "0 1"; //set to PU
}
object aggregate_transform{
    rank 7;
    name Set_SOE_efficiency_5334721;
    properties_list "Set_discharge_max_rate_5334721.output";
    bias_list "1.25"; //lower bounds are 0.5 upper are 0.9
    gain_list "0.4";
    result_object_name "Redflow_Battery_5334721";
    result_property_name "base_efficiency";
    resync_until_nochange TRUE;
}
object aggregate_transform{
    rank 7;
    name Battery_Charge_Limit_5334721;
    properties_list "ElermoreClimate.temperature RedFlow_Charge"; //<-- set the right climate file
    bias_list "+43 0";
    gain_list "20.83333 1"; //=62.5(Vop) * (Ic)(0.6*Tc+25)
    resync_until_nochange TRUE;
}
object aggregate_transform{
    rank 8;
    name compare_charging_inputs_5334721;
    operation SUM;
    properties_list "RedFlow_Charge_rate Battery_Charge_Limit_5334721.result";
    resync_until_nochange TRUE;
}
object lookup_table{
    rank 9;
    name charging_high_boolean_5334721;
    input_object "compare_charging_inputs_5334721";
    input_property "result";
    keys_string "0.0001 0.001"; 
    values_string "0 1";
}
object aggregate_transform{
    rank 10;
    name charging_limited_5334721;
    properties_list "Battery_Charge_Limit_5334721.result charging_high_boolean_5334721.output";
    resync_until_nochange TRUE;
}
object lookup_table{
    rank 9;
    name charging_low_boolean_5334721;
    input_object "compare_charging_inputs_5334721";
    input_property "result";
    keys_string "-0.1001 -0.1"; 
    values_string "1 0";
}
object aggregate_transform{
    rank 10;
    name charging_sourced_5334721;
    properties_list "RedFlow_Charge_rate charging_low_boolean_5334721.output";
    gain_list "-1";
    resync_until_nochange TRUE;
}
object aggregate_transform{
    rank 11;
    name Battery_Charge_5334721;
    operation SUM;
    properties_list "charging_limited_5334721.result charging_sourced_5334721.result";
    resync_until_nochange TRUE;
}
object aggregate_transform{
    rank 7;
    name Battery_Discharge_Rate_5334721;
    properties_list "Set_discharge_max_rate_5334721.output RedFlow_Discharge";
    resync_until_nochange TRUE;
}
object aggregate_transform{
    rank 8;
    name compare_discharging_inputs_5334721;
    operation SUM;
    properties_list "Battery_Discharge_Rate_5334721.result RedFlow_Discharge_rate";
    gain_list "5000 -1";
    resync_until_nochange TRUE;
}
object lookup_table{
    rank 9;
    name discharging_high_boolean_5334721;
    input_object "compare_discharging_inputs_5334721";
    input_property "result";
    keys_string "-0.0001 -0.00001"; 
    values_string "1 0";
}
object aggregate_transform{
    rank 10;
    name discharging_limited_5334721;
    properties_list "Battery_Discharge_Rate_5334721.result discharging_high_boolean_5334721.output";
    gain_list "1 5000";
    resync_until_nochange TRUE;
}
object lookup_table{
    rank 9;
    name discharging_low_boolean_5334721;
    input_object "compare_discharging_inputs_5334721";
    input_property "result";
    keys_string "0.0001 0.001"; 
    values_string "0 1";
}
object aggregate_transform{
    rank 10;
    name discharging_following_5334721;
    properties_list "RedFlow_Discharge_rate discharging_low_boolean_5334721.output";
    resync_until_nochange TRUE;
}
object aggregate_transform{
    rank 11;
    name Battery_Discharge_5334721;
    operation SUM;
    properties_list "discharging_limited_5334721.result discharging_following_5334721.result";
    gain_list "1 1";
    resync_until_nochange TRUE;
}
object aggregate_transform{
    rank 12;
    name set_battery_state_5334721;
    operation SUM;
    properties_list "Battery_Discharge_5334721.result Battery_Charge_5334721.result";
    result_object_name "Redflow_Battery_5334721";
    result_property_name "scheduled_power";
    resync_until_nochange TRUE;
}

object load {
      name BLUEGEN_5335432;
      parent FDR_4880_LV_SP_5335432;
      phases AN;
      nominal_voltage  240;
      constant_power_B_real schedule_BlueGen0;
      };

object load {
      name BLUEGEN_5335434;
      parent FDR_4880_LV_SP_5335434;
      phases CN;
      nominal_voltage  240;
      constant_power_B_real schedule_BlueGen0;
      };

object battery{
    name Redflow_Battery_5335170;
    parent FDR_10431_LV_SP_5335170;
    generator_mode CONSTANT_PQ;     
  V_Max 6351;   
  I_Max 250;   
  P_Max 5000;   
  E_Max 10000;       
  base_efficiency 0.86;     
  parasitic_power_draw 180 W;     
  power_type AC;     
  generator_status ONLINE;     
  Energy 10000;
  scheduled_power 2500;
  power_factor 1.0;
}
object aggregate_transform
{
    rank 6;
    name Set_Aux_Draw_5335170;
    properties_list "ElermoreClimate.temperature";  
    bias_list "575"; //calculate these values
    gain_list "0.3"; //calculate these values
    result_object_name "Redflow_Battery_5335170";
    result_property_name "parasitic_power_draw";
    resync_until_nochange TRUE;
}
object lookup_table{
    rank 6;
    name Set_discharge_max_rate_5335170;
    input_object "Redflow_Battery_5335170";
    input_property "Energy";
    keys_string "0 6000"; //max power charge rate
    values_string "0 1"; //set to PU
}
object aggregate_transform{
    rank 7;
    name Set_SOE_efficiency_5335170;
    properties_list "Set_discharge_max_rate_5335170.output";
    bias_list "1.25"; //lower bounds are 0.5 upper are 0.9
    gain_list "0.4";
    result_object_name "Redflow_Battery_5335170";
    result_property_name "base_efficiency";
    resync_until_nochange TRUE;
}
object aggregate_transform{
    rank 7;
    name Battery_Charge_Limit_5335170;
    properties_list "ElermoreClimate.temperature RedFlow_Charge"; //<-- set the right climate file
    bias_list "+43 0";
    gain_list "20.83333 1"; //=62.5(Vop) * (Ic)(0.6*Tc+25)
    resync_until_nochange TRUE;
}
object aggregate_transform{
    rank 8;
    name compare_charging_inputs_5335170;
    operation SUM;
    properties_list "RedFlow_Charge_rate Battery_Charge_Limit_5335170.result";
    resync_until_nochange TRUE;
}
object lookup_table{
    rank 9;
    name charging_high_boolean_5335170;
    input_object "compare_charging_inputs_5335170";
    input_property "result";
    keys_string "0.0001 0.001"; 
    values_string "0 1";
}
object aggregate_transform{
    rank 10;
    name charging_limited_5335170;
    properties_list "Battery_Charge_Limit_5335170.result charging_high_boolean_5335170.output";
    resync_until_nochange TRUE;
}
object lookup_table{
    rank 9;
    name charging_low_boolean_5335170;
    input_object "compare_charging_inputs_5335170";
    input_property "result";
    keys_string "-0.1001 -0.1"; 
    values_string "1 0";
}
object aggregate_transform{
    rank 10;
    name charging_sourced_5335170;
    properties_list "RedFlow_Charge_rate charging_low_boolean_5335170.output";
    gain_list "-1";
    resync_until_nochange TRUE;
}
object aggregate_transform{
    rank 11;
    name Battery_Charge_5335170;
    operation SUM;
    properties_list "charging_limited_5335170.result charging_sourced_5335170.result";
    resync_until_nochange TRUE;
}
object aggregate_transform{
    rank 7;
    name Battery_Discharge_Rate_5335170;
    properties_list "Set_discharge_max_rate_5335170.output RedFlow_Discharge";
    resync_until_nochange TRUE;
}
object aggregate_transform{
    rank 8;
    name compare_discharging_inputs_5335170;
    operation SUM;
    properties_list "Battery_Discharge_Rate_5335170.result RedFlow_Discharge_rate";
    gain_list "5000 -1";
    resync_until_nochange TRUE;
}
object lookup_table{
    rank 9;
    name discharging_high_boolean_5335170;
    input_object "compare_discharging_inputs_5335170";
    input_property "result";
    keys_string "-0.0001 -0.00001"; 
    values_string "1 0";
}
object aggregate_transform{
    rank 10;
    name discharging_limited_5335170;
    properties_list "Battery_Discharge_Rate_5335170.result discharging_high_boolean_5335170.output";
    gain_list "1 5000";
    resync_until_nochange TRUE;
}
object lookup_table{
    rank 9;
    name discharging_low_boolean_5335170;
    input_object "compare_discharging_inputs_5335170";
    input_property "result";
    keys_string "0.0001 0.001"; 
    values_string "0 1";
}
object aggregate_transform{
    rank 10;
    name discharging_following_5335170;
    properties_list "RedFlow_Discharge_rate discharging_low_boolean_5335170.output";
    resync_until_nochange TRUE;
}
object aggregate_transform{
    rank 11;
    name Battery_Discharge_5335170;
    operation SUM;
    properties_list "discharging_limited_5335170.result discharging_following_5335170.result";
    gain_list "1 1";
    resync_until_nochange TRUE;
}
object aggregate_transform{
    rank 12;
    name set_battery_state_5335170;
    operation SUM;
    properties_list "Battery_Discharge_5335170.result Battery_Charge_5335170.result";
    result_object_name "Redflow_Battery_5335170";
    result_property_name "scheduled_power";
    resync_until_nochange TRUE;
}


object battery{
    name Redflow_Battery_5334145;
    parent FDR_12447_LV_SP_5334145;
    generator_mode CONSTANT_PQ;     
  V_Max 6351;   
  I_Max 250;   
  P_Max 5000;   
  E_Max 10000;       
  base_efficiency 0.86;     
  parasitic_power_draw 180 W;     
  power_type AC;     
  generator_status ONLINE;     
  Energy 10000;
  scheduled_power 2500;
  power_factor 1.0;
}
object aggregate_transform
{
    rank 6;
    name Set_Aux_Draw_5334145;
    properties_list "ElermoreClimate.temperature";  
    bias_list "575"; //calculate these values
    gain_list "0.3"; //calculate these values
    result_object_name "Redflow_Battery_5334145";
    result_property_name "parasitic_power_draw";
    resync_until_nochange TRUE;
}
object lookup_table{
    rank 6;
    name Set_discharge_max_rate_5334145;
    input_object "Redflow_Battery_5334145";
    input_property "Energy";
    keys_string "0 6000"; //max power charge rate
    values_string "0 1"; //set to PU
}
object aggregate_transform{
    rank 7;
    name Set_SOE_efficiency_5334145;
    properties_list "Set_discharge_max_rate_5334145.output";
    bias_list "1.25"; //lower bounds are 0.5 upper are 0.9
    gain_list "0.4";
    result_object_name "Redflow_Battery_5334145";
    result_property_name "base_efficiency";
    resync_until_nochange TRUE;
}
object aggregate_transform{
    rank 7;
    name Battery_Charge_Limit_5334145;
    properties_list "ElermoreClimate.temperature RedFlow_Charge"; //<-- set the right climate file
    bias_list "+43 0";
    gain_list "20.83333 1"; //=62.5(Vop) * (Ic)(0.6*Tc+25)
    resync_until_nochange TRUE;
}
object aggregate_transform{
    rank 8;
    name compare_charging_inputs_5334145;
    operation SUM;
    properties_list "RedFlow_Charge_rate Battery_Charge_Limit_5334145";
    resync_until_nochange TRUE;
}
object lookup_table{
    rank 9;
    name charging_high_boolean_5334145;
    input_object "compare_charging_inputs_5334145";
    input_property "result";
    keys_string "0.0001 0.001"; 
    values_string "0 1";
}
object aggregate_transform{
    rank 10;
    name charging_limited_5334145;
    properties_list "Battery_Charge_Limit_5334145.result charging_high_boolean_5334145.output";
    resync_until_nochange TRUE;
}
object lookup_table{
    rank 9;
    name charging_low_boolean_5334145;
    input_object "compare_charging_inputs_5334145";
    input_property "result";
    keys_string "-0.1001 -0.1"; 
    values_string "1 0";
}
object aggregate_transform{
    rank 10;
    name charging_sourced_5334145;
    properties_list "RedFlow_Charge_rate charging_low_boolean_5334145.output";
    gain_list "-1";
    resync_until_nochange TRUE;
}
object aggregate_transform{
    rank 11;
    name Battery_Charge_5334145;
    operation SUM;
    properties_list "charging_limited_5334145.result charging_sourced_5334145.result";
    resync_until_nochange TRUE;
}
object aggregate_transform{
    rank 7;
    name Battery_Discharge_Rate_5334145;
    properties_list "Set_discharge_max_rate_5334145.output RedFlow_Discharge";
    resync_until_nochange TRUE;
}
object aggregate_transform{
    rank 8;
    name compare_discharging_inputs_5334145;
    operation SUM;
    properties_list "Battery_Discharge_Rate_5334145.result RedFlow_Discharge_rate";
    gain_list "5000 -1";
    resync_until_nochange TRUE;
}
object lookup_table{
    rank 9;
    name discharging_high_boolean_5334145;
    input_object "compare_discharging_inputs_5334145";
    input_property "result";
    keys_string "-0.0001 -0.00001"; 
    values_string "1 0";
}
object aggregate_transform{
    rank 10;
    name discharging_limited_5334145;
    properties_list "Battery_Discharge_Rate_5334145.result discharging_high_boolean_5334145.output";
    gain_list "1 5000";
    resync_until_nochange TRUE;
}
object lookup_table{
    rank 9;
    name discharging_low_boolean_5334145;
    input_object "compare_discharging_inputs_5334145";
    input_property "result";
    keys_string "0.0001 0.001"; 
    values_string "0 1";
}
object aggregate_transform{
    rank 10;
    name discharging_following_5334145;
    properties_list "RedFlow_Discharge_rate discharging_low_boolean_5334145.output";
    resync_until_nochange TRUE;
}
object aggregate_transform{
    rank 11;
    name Battery_Discharge_5334145;
    operation SUM;
    properties_list "discharging_limited_5334145.result discharging_following_5334145.result";
    gain_list "1 1";
    resync_until_nochange TRUE;
}
object aggregate_transform{
    rank 12;
    name set_battery_state_5334145;
    operation SUM;
    properties_list "Battery_Discharge_5334145.result Battery_Charge_5334145.result";
    result_object_name "Redflow_Battery_5334145";
    result_property_name "scheduled_power";
    resync_until_nochange TRUE;
}


object battery{
    name Redflow_Battery_5213345;
    parent FDR_38588_LV_SP_5213345;
    generator_mode CONSTANT_PQ;     
  V_Max 6351;   
  I_Max 250;   
  P_Max 5000;   
  E_Max 10000;       
  base_efficiency 0.86;     
  parasitic_power_draw 180 W;     
  power_type AC;     
  generator_status ONLINE;     
  Energy 10000;
  scheduled_power 2500;
  power_factor 1.0;
}
object aggregate_transform
{
    rank 6;
    name Set_Aux_Draw_5213345;
    properties_list "ElermoreClimate.temperature";  
    bias_list "575"; //calculate these values
    gain_list "0.3"; //calculate these values
    result_object_name "Redflow_Battery_5213345";
    result_property_name "parasitic_power_draw";
    resync_until_nochange TRUE;
}
object lookup_table{
    rank 6;
    name Set_discharge_max_rate_5213345;
    input_object "Redflow_Battery_5213345";
    input_property "Energy";
    keys_string "0 6000"; //max power charge rate
    values_string "0 1"; //set to PU
}
object aggregate_transform{
    rank 7;
    name Set_SOE_efficiency_5213345;
    properties_list "Set_discharge_max_rate_5213345.output";
    bias_list "1.25"; //lower bounds are 0.5 upper are 0.9
    gain_list "0.4";
    result_object_name "Redflow_Battery_5213345";
    result_property_name "base_efficiency";
    resync_until_nochange TRUE;
}
object aggregate_transform{
    rank 7;
    name Battery_Charge_Limit_5213345;
    properties_list "ElermoreClimate.temperature RedFlow_Charge"; 
    bias_list "+43 0";
    gain_list "20.83333 1"; //=62.5(Vop) * (Ic)(0.6*Tc+25)
    resync_until_nochange TRUE;
}
object aggregate_transform{
    rank 8;
    name compare_charging_inputs_5213345;
    operation SUM;
    properties_list "RedFlow_Charge_rate Battery_Charge_Limit_5213345";
    resync_until_nochange TRUE;
}
object lookup_table{
    rank 9;
    name charging_high_boolean_5213345;
    input_object "compare_charging_inputs_5213345";
    input_property "result";
    keys_string "0.0001 0.001"; 
    values_string "0 1";
}
object aggregate_transform{
    rank 10;
    name charging_limited_5213345;
    properties_list "Battery_Charge_Limit_5213345.result charging_high_boolean_5213345.output";
    resync_until_nochange TRUE;
}
object lookup_table{
    rank 9;
    name charging_low_boolean_5213345;
    input_object "compare_charging_inputs_5213345";
    input_property "result";
    keys_string "-0.1001 -0.1"; 
    values_string "1 0";
}
object aggregate_transform{
    rank 10;
    name charging_sourced_5213345;
    properties_list "RedFlow_Charge_rate charging_low_boolean_5213345.output";
    gain_list "-1";
    resync_until_nochange TRUE;
}
object aggregate_transform{
    rank 11;
    name Battery_Charge_5213345;
    operation SUM;
    properties_list "charging_limited_5213345.result charging_sourced_5213345.result";
    resync_until_nochange TRUE;
}
object aggregate_transform{
    rank 7;
    name Battery_Discharge_Rate_5213345;
    properties_list "Set_discharge_max_rate_5213345.output RedFlow_Discharge";
    resync_until_nochange TRUE;
}
object aggregate_transform{
    rank 8;
    name compare_discharging_inputs_5213345;
    operation SUM;
    properties_list "Battery_Discharge_Rate_5213345.result RedFlow_Discharge_rate";
    gain_list "5000 -1";
    resync_until_nochange TRUE;
}
object lookup_table{
    rank 9;
    name discharging_high_boolean_5213345;
    input_object "compare_discharging_inputs_5213345";
    input_property "result";
    keys_string "-0.0001 -0.00001"; 
    values_string "1 0";
}
object aggregate_transform{
    rank 10;
    name discharging_limited_5213345;
    properties_list "Battery_Discharge_Rate_5213345.result discharging_high_boolean_5213345.output";
    gain_list "1 5000";
    resync_until_nochange TRUE;
}
object lookup_table{
    rank 9;
    name discharging_low_boolean_5213345;
    input_object "compare_discharging_inputs_5213345";
    input_property "result";
    keys_string "0.0001 0.001"; 
    values_string "0 1";
}
object aggregate_transform{
    rank 10;
    name discharging_following_5213345;
    properties_list "RedFlow_Discharge_rate discharging_low_boolean_5213345.output";
    resync_until_nochange TRUE;
}
object aggregate_transform{
    rank 11;
    name Battery_Discharge_5213345;
    operation SUM;
    properties_list "discharging_limited_5213345.result discharging_following_5213345.result";
    gain_list "1 1";
    resync_until_nochange TRUE;
}
object aggregate_transform{
    rank 12;
    name set_battery_state_5213345;
    operation SUM;
    properties_list "Battery_Discharge_5213345.result Battery_Charge_5213345.result";
    result_object_name "Redflow_Battery_5213345";
    result_property_name "scheduled_power";
    resync_until_nochange TRUE;
}


object load {
      name BLUEGEN_5335231;
      parent FDR_38588_LV_SP_5335231;
      phases AN;
      nominal_voltage  240;
      constant_power_B_real schedule_BlueGen0;
      };

object battery{
    name Redflow_Battery_5335194;
    parent FDR_10431_LV_SP_5335194;
    generator_mode CONSTANT_PQ;     
  V_Max 6351;   
  I_Max 250;   
  P_Max 5000;   
  E_Max 10000;       
  base_efficiency 0.86;     
  parasitic_power_draw 180 W;     
  power_type AC;     
  generator_status ONLINE;     
  Energy 10000;
  scheduled_power 2500;
  power_factor 1.0;
}
object aggregate_transform
{
    rank 6;
    name Set_Aux_Draw_5335194;
    properties_list "ElermoreClimate.temperature";  
    bias_list "575"; //calculate these values
    gain_list "0.3"; //calculate these values
    result_object_name "Redflow_Battery_5335194";
    result_property_name "parasitic_power_draw";
    resync_until_nochange TRUE;
}
object lookup_table{
    rank 6;
    name Set_discharge_max_rate_5335194;
    input_object "Redflow_Battery_5335194";
    input_property "Energy";
    keys_string "0 6000"; //max power charge rate
    values_string "0 1"; //set to PU
}
object aggregate_transform{
    rank 7;
    name Set_SOE_efficiency_5335194;
    properties_list "Set_discharge_max_rate_5335194.output";
    bias_list "1.25"; //lower bounds are 0.5 upper are 0.9
    gain_list "0.4";
    result_object_name "Redflow_Battery_5335194";
    result_property_name "base_efficiency";
    resync_until_nochange TRUE;
}
object aggregate_transform{
    rank 7;
    name Battery_Charge_Limit_5335194;
    properties_list "ElermoreClimate.temperature RedFlow_Charge"; //<-- set the right climate file
    bias_list "+43 0";
    gain_list "20.83333 1"; //=62.5(Vop) * (Ic)(0.6*Tc+25)
    resync_until_nochange TRUE;
}
object aggregate_transform{
    rank 8;
    name compare_charging_inputs_5335194;
    operation SUM;
    properties_list "RedFlow_Charge_rate Battery_Charge_Limit_5335194.result";
    resync_until_nochange TRUE;
}
object lookup_table{
    rank 9;
    name charging_high_boolean_5335194;
    input_object "compare_charging_inputs_5335194";
    input_property "result";
    keys_string "0.0001 0.001"; 
    values_string "0 1";
}
object aggregate_transform{
    rank 10;
    name charging_limited_5335194;
    properties_list "Battery_Charge_Limit_5335194.result charging_high_boolean_5335194.output";
    resync_until_nochange TRUE;
}
object lookup_table{
    rank 9;
    name charging_low_boolean_5335194;
    input_object "compare_charging_inputs_5335194";
    input_property "result";
    keys_string "-0.1001 -0.1"; 
    values_string "1 0";
}
object aggregate_transform{
    rank 10;
    name charging_sourced_5335194;
    properties_list "RedFlow_Charge_rate charging_low_boolean_5335194.output";
    gain_list "-1";
    resync_until_nochange TRUE;
}
object aggregate_transform{
    rank 11;
    name Battery_Charge_5335194;
    operation SUM;
    properties_list "charging_limited_5335194.result charging_sourced_5335194.result";
    resync_until_nochange TRUE;
}
object aggregate_transform{
    rank 7;
    name Battery_Discharge_Rate_5335194;
    properties_list "Set_discharge_max_rate_5335194.output RedFlow_Discharge";
    resync_until_nochange TRUE;
}
object aggregate_transform{
    rank 8;
    name compare_discharging_inputs_5335194;
    operation SUM;
    properties_list "Battery_Discharge_Rate_5335194.result RedFlow_Discharge_rate";
    gain_list "5000 -1";
    resync_until_nochange TRUE;
}
object lookup_table{
    rank 9;
    name discharging_high_boolean_5335194;
    input_object "compare_discharging_inputs_5335194";
    input_property "result";
    keys_string "-0.0001 -0.00001"; 
    values_string "1 0";
}
object aggregate_transform{
    rank 10;
    name discharging_limited_5335194;
    properties_list "Battery_Discharge_Rate_5335194.result discharging_high_boolean_5335194.output";
    gain_list "1 5000";
    resync_until_nochange TRUE;
}
object lookup_table{
    rank 9;
    name discharging_low_boolean_5335194;
    input_object "compare_discharging_inputs_5335194";
    input_property "result";
    keys_string "0.0001 0.001"; 
    values_string "0 1";
}
object aggregate_transform{
    rank 10;
    name discharging_following_5335194;
    properties_list "RedFlow_Discharge_rate discharging_low_boolean_5335194.output";
    resync_until_nochange TRUE;
}
object aggregate_transform{
    rank 11;
    name Battery_Discharge_5335194;
    operation SUM;
    properties_list "discharging_limited_5335194.result discharging_following_5335194.result";
    gain_list "1 1";
    resync_until_nochange TRUE;
}
object aggregate_transform{
    rank 12;
    name set_battery_state_5335194;
    operation SUM;
    properties_list "Battery_Discharge_5335194.result Battery_Charge_5335194.result";
    result_object_name "Redflow_Battery_5335194";
    result_property_name "scheduled_power";
    resync_until_nochange TRUE;
}


object battery{
    name Redflow_Battery_5335181;
    parent FDR_10431_LV_SP_5335181;
    generator_mode CONSTANT_PQ;     
  V_Max 6351;   
  I_Max 250;   
  P_Max 5000;   
  E_Max 10000;       
  base_efficiency 0.86;     
  parasitic_power_draw 180 W;     
  power_type AC;     
  generator_status ONLINE;     
  Energy 10000;
  scheduled_power 2500;
  power_factor 1.0;
}
object aggregate_transform
{
    rank 6;
    name Set_Aux_Draw_5335181;
    properties_list "ElermoreClimate.temperature";  
    bias_list "575"; //calculate these values
    gain_list "0.3"; //calculate these values
    result_object_name "Redflow_Battery_5335181";
    result_property_name "parasitic_power_draw";
    resync_until_nochange TRUE;
}
object lookup_table{
    rank 6;
    name Set_discharge_max_rate_5335181;
    input_object "Redflow_Battery_5335181";
    input_property "Energy";
    keys_string "0 6000"; //max power charge rate
    values_string "0 1"; //set to PU
}
object aggregate_transform{
    rank 7;
    name Set_SOE_efficiency_5335181;
    properties_list "Set_discharge_max_rate_5335181.output";
    bias_list "1.25"; //lower bounds are 0.5 upper are 0.9
    gain_list "0.4";
    result_object_name "Redflow_Battery_5335181";
    result_property_name "base_efficiency";
    resync_until_nochange TRUE;
}
object aggregate_transform{
    rank 7;
    name Battery_Charge_Limit_5335181;
    properties_list "ElermoreClimate.temperature RedFlow_Charge"; //<-- set the right climate file
    bias_list "+43 0";
    gain_list "20.83333 1"; //=62.5(Vop) * (Ic)(0.6*Tc+25)
    resync_until_nochange TRUE;
}
object aggregate_transform{
    rank 8;
    name compare_charging_inputs_5335181;
    operation SUM;
    properties_list "RedFlow_Charge_rate Battery_Charge_Limit_5335181.result";
    resync_until_nochange TRUE;
}
object lookup_table{
    rank 9;
    name charging_high_boolean_5335181;
    input_object "compare_charging_inputs_5335181";
    input_property "result";
    keys_string "0.0001 0.001"; 
    values_string "0 1";
}
object aggregate_transform{
    rank 10;
    name charging_limited_5335181;
    properties_list "Battery_Charge_Limit_5335181.result charging_high_boolean_5335181.output";
    resync_until_nochange TRUE;
}
object lookup_table{
    rank 9;
    name charging_low_boolean_5335181;
    input_object "compare_charging_inputs_5335181";
    input_property "result";
    keys_string "-0.1001 -0.1"; 
    values_string "1 0";
}
object aggregate_transform{
    rank 10;
    name charging_sourced_5335181;
    properties_list "RedFlow_Charge_rate charging_low_boolean_5335181.output";
    gain_list "-1";
    resync_until_nochange TRUE;
}
object aggregate_transform{
    rank 11;
    name Battery_Charge_5335181;
    operation SUM;
    properties_list "charging_limited_5335181.result charging_sourced_5335181.result";
    resync_until_nochange TRUE;
}
object aggregate_transform{
    rank 7;
    name Battery_Discharge_Rate_5335181;
    properties_list "Set_discharge_max_rate_5335181.output RedFlow_Discharge";
    resync_until_nochange TRUE;
}
object aggregate_transform{
    rank 8;
    name compare_discharging_inputs_5335181;
    operation SUM;
    properties_list "Battery_Discharge_Rate_5335181.result RedFlow_Discharge_rate";
    gain_list "5000 -1";
    resync_until_nochange TRUE;
}
object lookup_table{
    rank 9;
    name discharging_high_boolean_5335181;
    input_object "compare_discharging_inputs_5335181";
    input_property "result";
    keys_string "-0.0001 -0.00001"; 
    values_string "1 0";
}
object aggregate_transform{
    rank 10;
    name discharging_limited_5335181;
    properties_list "Battery_Discharge_Rate_5335181.result discharging_high_boolean_5335181.output";
    gain_list "1 5000";
    resync_until_nochange TRUE;
}
object lookup_table{
    rank 9;
    name discharging_low_boolean_5335181;
    input_object "compare_discharging_inputs_5335181";
    input_property "result";
    keys_string "0.0001 0.001"; 
    values_string "0 1";
}
object aggregate_transform{
    rank 10;
    name discharging_following_5335181;
    properties_list "RedFlow_Discharge_rate discharging_low_boolean_5335181.output";
    resync_until_nochange TRUE;
}
object aggregate_transform{
    rank 11;
    name Battery_Discharge_5335181;
    operation SUM;
    properties_list "discharging_limited_5335181.result discharging_following_5335181.result";
    gain_list "1 1";
    resync_until_nochange TRUE;
}
object aggregate_transform{
    rank 12;
    name set_battery_state_5335181;
    operation SUM;
    properties_list "Battery_Discharge_5335181.result Battery_Charge_5335181.result";
    result_object_name "Redflow_Battery_5335181";
    result_property_name "scheduled_power";
    resync_until_nochange TRUE;
}


object battery{
    name Redflow_Battery_5335453;
    parent FDR_4880_LV_SP_5335453;
    generator_mode CONSTANT_PQ;     
  V_Max 6351;   
  I_Max 250;   
  P_Max 5000;   
  E_Max 10000;       
  base_efficiency 0.86;     
  parasitic_power_draw 180 W;     
  power_type AC;     
  generator_status ONLINE;     
  Energy 10000;
  scheduled_power 2500;
  power_factor 1.0;
}
object aggregate_transform
{
    rank 6;
    name Set_Aux_Draw_5335453;
    properties_list "ElermoreClimate.temperature";  
    bias_list "575"; //calculate these values
    gain_list "0.3"; //calculate these values
    result_object_name "Redflow_Battery_5335453";
    result_property_name "parasitic_power_draw";
    resync_until_nochange TRUE;
}
object lookup_table{
    rank 6;
    name Set_discharge_max_rate_5335453;
    input_object "Redflow_Battery_5335453";
    input_property "Energy";
    keys_string "0 6000"; //max power charge rate
    values_string "0 1"; //set to PU
}
object aggregate_transform{
    rank 7;
    name Set_SOE_efficiency_5335453;
    properties_list "Set_discharge_max_rate_5335453.output";
    bias_list "1.25"; //lower bounds are 0.5 upper are 0.9
    gain_list "0.4";
    result_object_name "Redflow_Battery_5335453";
    result_property_name "base_efficiency";
    resync_until_nochange TRUE;
}
object aggregate_transform{
    rank 7;
    name Battery_Charge_Limit_5335453;
    properties_list "ElermoreClimate.temperature RedFlow_Charge"; //<-- set the right climate file
    bias_list "+43 0";
    gain_list "20.83333 1"; //=62.5(Vop) * (Ic)(0.6*Tc+25)
    resync_until_nochange TRUE;
}
object aggregate_transform{
    rank 8;
    name compare_charging_inputs_5335453;
    operation SUM;
    properties_list "RedFlow_Charge_rate Battery_Charge_Limit_5335453.result";
    resync_until_nochange TRUE;
}
object lookup_table{
    rank 9;
    name charging_high_boolean_5335453;
    input_object "compare_charging_inputs_5335453";
    input_property "result";
    keys_string "0.0001 0.001"; 
    values_string "0 1";
}
object aggregate_transform{
    rank 10;
    name charging_limited_5335453;
    properties_list "Battery_Charge_Limit_5335453.result charging_high_boolean_5335453.output";
    resync_until_nochange TRUE;
}
object lookup_table{
    rank 9;
    name charging_low_boolean_5335453;
    input_object "compare_charging_inputs_5335453";
    input_property "result";
    keys_string "-0.1001 -0.1"; 
    values_string "1 0";
}
object aggregate_transform{
    rank 10;
    name charging_sourced_5335453;
    properties_list "RedFlow_Charge_rate charging_low_boolean_5335453.output";
    gain_list "-1";
    resync_until_nochange TRUE;
}
object aggregate_transform{
    rank 11;
    name Battery_Charge_5335453;
    operation SUM;
    properties_list "charging_limited_5335453.result charging_sourced_5335453.result";
    resync_until_nochange TRUE;
}
object aggregate_transform{
    rank 7;
    name Battery_Discharge_Rate_5335453;
    properties_list "Set_discharge_max_rate_5335453.output RedFlow_Discharge";
    resync_until_nochange TRUE;
}
object aggregate_transform{
    rank 8;
    name compare_discharging_inputs_5335453;
    operation SUM;
    properties_list "Battery_Discharge_Rate_5335453.result RedFlow_Discharge_rate";
    gain_list "5000 -1";
    resync_until_nochange TRUE;
}
object lookup_table{
    rank 9;
    name discharging_high_boolean_5335453;
    input_object "compare_discharging_inputs_5335453";
    input_property "result";
    keys_string "-0.0001 -0.00001"; 
    values_string "1 0";
}
object aggregate_transform{
    rank 10;
    name discharging_limited_5335453;
    properties_list "Battery_Discharge_Rate_5335453.result discharging_high_boolean_5335453.output";
    gain_list "1 5000";
    resync_until_nochange TRUE;
}
object lookup_table{
    rank 9;
    name discharging_low_boolean_5335453;
    input_object "compare_discharging_inputs_5335453";
    input_property "result";
    keys_string "0.0001 0.001"; 
    values_string "0 1";
}
object aggregate_transform{
    rank 10;
    name discharging_following_5335453;
    properties_list "RedFlow_Discharge_rate discharging_low_boolean_5335453.output";
    resync_until_nochange TRUE;
}
object aggregate_transform{
    rank 11;
    name Battery_Discharge_5335453;
    operation SUM;
    properties_list "discharging_limited_5335453.result discharging_following_5335453.result";
    gain_list "1 1";
    resync_until_nochange TRUE;
}
object aggregate_transform{
    rank 12;
    name set_battery_state_5335453;
    operation SUM;
    properties_list "Battery_Discharge_5335453.result Battery_Charge_5335453.result";
    result_object_name "Redflow_Battery_5335453";
    result_property_name "scheduled_power";
    resync_until_nochange TRUE;
}


object battery{
    name Redflow_Battery_5335125;
    parent FDR_10431_LV_SP_5335125;
    generator_mode CONSTANT_PQ;     
  V_Max 6351;   
  I_Max 250;   
  P_Max 5000;   
  E_Max 10000;       
  base_efficiency 0.86;     
  parasitic_power_draw 180 W;     
  power_type AC;     
  generator_status ONLINE;     
  Energy 10000;
  scheduled_power 2500;
  power_factor 1.0;
}
object aggregate_transform
{
    rank 6;
    name Set_Aux_Draw_5335125;
    properties_list "ElermoreClimate.temperature";  
    bias_list "575"; //calculate these values
    gain_list "0.3"; //calculate these values
    result_object_name "Redflow_Battery_5335125";
    result_property_name "parasitic_power_draw";
    resync_until_nochange TRUE;
}
object lookup_table{
    rank 6;
    name Set_discharge_max_rate_5335125;
    input_object "Redflow_Battery_5335125";
    input_property "Energy";
    keys_string "0 6000"; //max power charge rate
    values_string "0 1"; //set to PU
}
object aggregate_transform{
    rank 7;
    name Set_SOE_efficiency_5335125;
    properties_list "Set_discharge_max_rate_5335125.output";
    bias_list "1.25"; //lower bounds are 0.5 upper are 0.9
    gain_list "0.4";
    result_object_name "Redflow_Battery_5335125";
    result_property_name "base_efficiency";
    resync_until_nochange TRUE;
}
object aggregate_transform{
    rank 7;
    name Battery_Charge_Limit_5335125;
    properties_list "ElermoreClimate.temperature RedFlow_Charge"; //<-- set the right climate file
    bias_list "+43 0";
    gain_list "20.83333 1"; //=62.5(Vop) * (Ic)(0.6*Tc+25)
    resync_until_nochange TRUE;
}
object aggregate_transform{
    rank 8;
    name compare_charging_inputs_5335125;
    operation SUM;
    properties_list "RedFlow_Charge_rate Battery_Charge_Limit_5335125.result";
    resync_until_nochange TRUE;
}
object lookup_table{
    rank 9;
    name charging_high_boolean_5335125;
    input_object "compare_charging_inputs_5335125";
    input_property "result";
...